Version 4
SHEET 1 1169 924
WIRE 684 764 684 896
WIRE 620 376 620 684
WIRE 196 376 196 488
WIRE 196 568 196 896
WIRE 196 376 372 376
WIRE 436 376 620 376
WIRE 684 812 684 812
WIRE 684 844 684 844
WIRE 196 896 712 896
WIRE 620 684 684 684
SYMBOL voltage 620 668 R0
SYMATTR InstName V1
SYMBOL res 180 472 R0
SYMATTR InstName R1
SYMBOL cap 436 360 R90
WINDOW 0 0 32 VBottom 2
WINDOW 3 32 32 VTop 2
SYMATTR InstName C1
