Version 4
SHEET 1 120 160
WIRE 108 -4 108 -4
WIRE 68 68 156 68
WIRE 0 116 108 116
WIRE 0 68 0 116
WIRE 108 0 108 116
WIRE 156 68 156 68
