Version 4
SHEET 1 180 320
WIRE 208 -20 208 124
WIRE 208 -20 208 124
WIRE 128 -48 128 124
WIRE 128 -48 128 124
WIRE 208 -48 208 32
WIRE 208 -48 208 32
WIRE 48 32 128 32
WIRE 48 32 128 32
WIRE -36 60 44 60
WIRE -36 60 44 60
WIRE 96 -4 128 -4
WIRE 44 -4 84 -4
WIRE 44 124 208 124
WIRE 16 176 44 176
WIRE 44 32 44 124
WIRE 280 0 280 176
SYMBOL cap 68 0 R0
SYMATTR InstName C1
SYMBOL Component Not Found 80 -4 R0
SYMATTR InstName A1
SYMBOL res 196 36 R0
SYMATTR InstName R1
SYMBOL Component Not Found 92 68 R0
SYMATTR InstName A2
SYMBOL Component Not Found 80 -16 R0
SYMATTR InstName A3
SYMBOL Component Not Found 0 132 R0
SYMATTR InstName A4
SYMBOL Component Not Found 92 56 R0
SYMATTR InstName A5
SYMBOL Component Not Found 268 76 R0
SYMATTR InstName A6
